Version 4
SHEET 1 2784 1204
WIRE 2704 -144 2704 -208
WIRE 144 -112 32 -112
WIRE 240 -112 144 -112
WIRE 416 -112 304 -112
WIRE 544 -112 416 -112
WIRE 672 -112 544 -112
WIRE 2288 -112 2176 -112
WIRE 1216 -96 1216 -144
WIRE 2464 -96 2352 -96
WIRE 2640 -96 2544 -96
WIRE 544 -80 544 -112
WIRE 2288 -80 2192 -80
WIRE 144 -32 144 -112
WIRE 240 -32 144 -32
WIRE 464 -32 304 -32
WIRE 32 32 32 -112
WIRE 1216 48 1216 -16
WIRE 1408 48 1216 48
WIRE 544 64 544 -16
WIRE 1408 96 1408 48
WIRE 2192 96 2192 -80
WIRE 2304 96 2192 96
WIRE 2464 96 2384 96
WIRE 2704 96 2704 -48
WIRE 2704 96 2544 96
WIRE 32 160 32 112
WIRE 32 160 -80 160
WIRE 1216 160 1216 48
WIRE -80 176 -80 160
WIRE 2192 176 2192 96
WIRE 32 192 32 160
WIRE 2704 192 2704 96
WIRE 1408 208 1408 176
WIRE 1536 208 1408 208
WIRE 1408 256 1408 208
WIRE 2192 320 2192 256
WIRE 2704 320 2704 272
WIRE 32 352 32 272
WIRE 160 352 32 352
WIRE 240 352 160 352
WIRE 416 352 416 -112
WIRE 416 352 304 352
WIRE 464 352 464 -32
WIRE 544 352 464 352
WIRE 672 352 544 352
WIRE 544 384 544 352
WIRE 1216 400 1216 224
WIRE 1408 400 1408 336
WIRE 160 432 160 352
WIRE 240 432 160 432
WIRE 464 432 464 352
WIRE 464 432 304 432
WIRE 544 528 544 448
WIRE 2704 624 2704 560
WIRE 2288 656 2176 656
WIRE 2464 672 2352 672
WIRE 2640 672 2544 672
WIRE 1216 688 1216 640
WIRE 2288 688 2192 688
WIRE 1216 832 1216 768
WIRE 1408 832 1216 832
WIRE 2192 864 2192 688
WIRE 2304 864 2192 864
WIRE 2464 864 2384 864
WIRE 2704 864 2704 720
WIRE 2704 864 2544 864
WIRE 1408 880 1408 832
WIRE 1216 944 1216 832
WIRE 2192 944 2192 864
WIRE 2704 960 2704 864
WIRE 1408 1008 1408 960
WIRE 1552 1008 1408 1008
WIRE 1408 1040 1408 1008
WIRE 2192 1088 2192 1024
WIRE 2704 1088 2704 1040
WIRE 1216 1184 1216 1008
WIRE 1408 1184 1408 1120
FLAG -80 176 0
FLAG 544 64 0
FLAG 544 528 0
FLAG 1216 400 0
FLAG 1408 400 0
FLAG 672 -112 +Vcc
FLAG 1216 -144 +Vcc
FLAG 1216 1184 0
FLAG 1408 1184 0
FLAG 1216 640 -Vcc
FLAG 672 352 -Vcc
FLAG 1536 208 +Vref
FLAG 1552 1008 -Vref
FLAG 2176 -112 +Vref
FLAG 2320 -64 +Vcc
FLAG 224 848 -Vee
FLAG 400 848 +Vee
FLAG 224 928 0
FLAG 400 928 0
FLAG 2320 -128 -Vee
FLAG 2704 320 0
FLAG 2192 320 0
FLAG 2704 -208 +Vcc
FLAG 2176 656 -Vref
FLAG 2320 704 +Vee
FLAG 2320 640 -Vcc
FLAG 2704 1088 0
FLAG 2192 1088 0
FLAG 2704 560 -Vcc
SYMBOL voltage 32 16 R0
SYMATTR InstName V1
SYMATTR Value SINE(0 25.45 60)
SYMBOL voltage 32 176 R0
SYMATTR InstName V2
SYMATTR Value SINE(0 25.45 60)
SYMBOL diode 240 -96 R270
WINDOW 0 32 32 VTop 2
WINDOW 3 0 32 VBottom 2
SYMATTR InstName D1
SYMBOL diode 304 -48 R90
WINDOW 0 0 32 VBottom 2
WINDOW 3 32 32 VTop 2
SYMATTR InstName D2
SYMBOL diode 240 368 R270
WINDOW 0 32 32 VTop 2
WINDOW 3 0 32 VBottom 2
SYMATTR InstName D3
SYMBOL diode 304 416 R90
WINDOW 0 0 32 VBottom 2
WINDOW 3 32 32 VTop 2
SYMATTR InstName D4
SYMBOL cap 528 -80 R0
SYMATTR InstName C1
SYMATTR Value 4000µ
SYMBOL cap 528 384 R0
SYMATTR InstName C2
SYMATTR Value 4000µ
SYMBOL res 1200 -112 R0
SYMATTR InstName R1
SYMATTR Value 4k
SYMBOL zener 1232 224 R180
WINDOW 0 24 64 Left 2
WINDOW 3 24 0 Left 2
SYMATTR InstName D5
SYMATTR Value 1N750
SYMBOL res 1392 80 R0
SYMATTR InstName R2
SYMATTR Value 1
SYMBOL res 1392 240 R0
SYMATTR InstName R3
SYMATTR Value 10k
SYMBOL res 1200 672 R0
SYMATTR InstName R4
SYMATTR Value 4k
SYMBOL zener 1200 944 R0
SYMATTR InstName D6
SYMATTR Value 1N750
SYMBOL res 1392 864 R0
SYMATTR InstName R5
SYMATTR Value 1
SYMBOL res 1392 1024 R0
SYMATTR InstName R6
SYMATTR Value 10k
SYMBOL res 2560 -112 R90
WINDOW 0 0 56 VBottom 2
WINDOW 3 32 56 VTop 2
SYMATTR InstName R7
SYMATTR Value 100
SYMBOL res 2560 80 R90
WINDOW 0 0 56 VBottom 2
WINDOW 3 32 56 VTop 2
SYMATTR InstName R8
SYMATTR Value 1k
SYMBOL res 2400 80 R90
WINDOW 0 0 56 VBottom 2
WINDOW 3 32 56 VTop 2
SYMATTR InstName R9
SYMATTR Value 20k
SYMBOL res 2208 272 R180
WINDOW 0 36 76 Left 2
WINDOW 3 36 40 Left 2
SYMATTR InstName R10
SYMATTR Value 10k
SYMBOL res 2688 176 R0
SYMATTR InstName R11
SYMATTR Value 15
SYMBOL npn 2640 -144 R0
SYMATTR InstName Q1
SYMATTR Value FZT849
SYMBOL OpAmps\\UniversalOpamp2 2320 -96 M180
SYMATTR InstName U1
SYMBOL voltage 224 944 R180
WINDOW 123 0 0 Left 0
WINDOW 39 0 0 Left 0
SYMATTR InstName V3
SYMATTR Value 5
SYMBOL voltage 400 832 R0
WINDOW 123 0 0 Left 0
WINDOW 39 0 0 Left 0
SYMATTR InstName V4
SYMATTR Value 5
SYMBOL res 2560 656 R90
WINDOW 0 0 56 VBottom 2
WINDOW 3 32 56 VTop 2
SYMATTR InstName R12
SYMATTR Value 100
SYMBOL res 2560 848 R90
WINDOW 0 0 56 VBottom 2
WINDOW 3 32 56 VTop 2
SYMATTR InstName R13
SYMATTR Value 1k
SYMBOL res 2400 848 R90
WINDOW 0 0 56 VBottom 2
WINDOW 3 32 56 VTop 2
SYMATTR InstName R14
SYMATTR Value 20k
SYMBOL res 2208 1040 R180
WINDOW 0 36 76 Left 2
WINDOW 3 36 40 Left 2
SYMATTR InstName R15
SYMATTR Value 10k
SYMBOL res 2688 944 R0
SYMATTR InstName R16
SYMATTR Value 15
SYMBOL npn 2640 624 R0
SYMATTR InstName Q2
SYMATTR Value FZT849
SYMBOL OpAmps\\UniversalOpamp2 2320 672 M180
SYMATTR InstName U2
TEXT 176 -248 Left 2 ;Estágio retificador com filtro capacitivo
TEXT -104 552 Left 2 !.tran 0.1s
TEXT 1040 -248 Left 2 ;Estágio regulador de tensão (+)
TEXT 1040 536 Left 2 ;Estágio regulador de tensão (-)
TEXT 2192 -256 Left 2 ;Estágio de ganho (+)
TEXT 184 680 Left 2 ;Fontes auxiliares
TEXT 2192 512 Left 2 ;Estágio de ganho (-)
