Version 4
SHEET 1 8760 7992
WIRE 3504 -208 3504 -240
WIRE 2704 -144 2704 -208
WIRE 144 -112 32 -112
WIRE 240 -112 144 -112
WIRE 416 -112 304 -112
WIRE 544 -112 416 -112
WIRE 672 -112 544 -112
WIRE 2288 -112 2176 -112
WIRE 1408 -96 1408 -144
WIRE 2464 -96 2352 -96
WIRE 2640 -96 2544 -96
WIRE 544 -80 544 -112
WIRE 2288 -80 2192 -80
WIRE 3344 -80 3168 -80
WIRE 3504 -80 3504 -128
WIRE 3504 -80 3424 -80
WIRE 2816 -48 2704 -48
WIRE 144 -32 144 -112
WIRE 240 -32 144 -32
WIRE 464 -32 304 -32
WIRE 3168 -16 3168 -80
WIRE 4016 -16 3984 -16
WIRE 4320 -16 4176 -16
WIRE 3504 0 3504 -80
WIRE 3600 0 3504 0
WIRE 4496 0 4384 0
WIRE 4544 0 4496 0
WIRE 3712 16 3664 16
WIRE 3808 16 3712 16
WIRE 4320 16 4288 16
WIRE 32 32 32 -112
WIRE 3600 32 3504 32
WIRE 4016 32 3872 32
WIRE 1408 48 1408 -16
WIRE 1408 48 1184 48
WIRE 1600 48 1408 48
WIRE 3808 48 3792 48
WIRE 544 64 544 -16
WIRE 1600 96 1600 48
WIRE 2192 96 2192 -80
WIRE 2304 96 2192 96
WIRE 2464 96 2384 96
WIRE 2704 96 2544 96
WIRE 2816 96 2704 96
WIRE 3168 112 3168 64
WIRE 3344 112 3168 112
WIRE 3504 112 3504 32
WIRE 3504 112 3424 112
WIRE 4288 128 4288 16
WIRE 4336 128 4288 128
WIRE 4496 128 4496 0
WIRE 4496 128 4416 128
WIRE 4288 144 4288 128
WIRE 32 160 32 112
WIRE 32 160 -80 160
WIRE 1184 160 1184 48
WIRE 1408 160 1408 48
WIRE 3504 160 3504 112
WIRE 3584 160 3504 160
WIRE 3712 160 3712 16
WIRE 3712 160 3664 160
WIRE -80 176 -80 160
WIRE 2192 176 2192 96
WIRE 32 192 32 160
WIRE 2704 192 2704 96
WIRE 1008 208 976 208
WIRE 1120 208 1088 208
WIRE 1600 208 1600 176
WIRE 1728 208 1600 208
WIRE 1600 256 1600 208
WIRE 2192 320 2192 256
WIRE 2704 320 2704 272
WIRE 32 352 32 272
WIRE 160 352 32 352
WIRE 240 352 160 352
WIRE 416 352 416 -112
WIRE 416 352 304 352
WIRE 464 352 464 -32
WIRE 544 352 464 352
WIRE 672 352 544 352
WIRE 544 384 544 352
WIRE 1184 400 1184 256
WIRE 1408 400 1408 224
WIRE 1600 400 1600 336
WIRE 160 432 160 352
WIRE 240 432 160 432
WIRE 464 432 464 352
WIRE 464 432 304 432
WIRE 544 528 544 448
WIRE 2704 624 2704 560
WIRE 2288 656 2176 656
WIRE 2464 672 2352 672
WIRE 2640 672 2544 672
WIRE 1408 688 1408 640
WIRE 2288 688 2192 688
WIRE 1408 832 1408 768
WIRE 1600 832 1408 832
WIRE 2192 864 2192 688
WIRE 2304 864 2192 864
WIRE 2464 864 2384 864
WIRE 2704 864 2704 720
WIRE 2704 864 2544 864
WIRE 1600 880 1600 832
WIRE 1408 944 1408 832
WIRE 2192 944 2192 864
WIRE 2704 960 2704 864
WIRE 1600 1008 1600 960
WIRE 1744 1008 1600 1008
WIRE 1600 1040 1600 1008
WIRE 2192 1088 2192 1024
WIRE 2704 1088 2704 1040
WIRE 1408 1184 1408 1008
WIRE 1600 1184 1600 1120
FLAG -80 176 0
FLAG 544 64 0
FLAG 544 528 0
FLAG 1408 400 0
FLAG 1600 400 0
FLAG 672 -112 +Vcc
FLAG 1408 -144 +Vcc
FLAG 1408 1184 0
FLAG 1600 1184 0
FLAG 1408 640 -Vcc
FLAG 672 352 -Vcc
FLAG 1728 208 +Vref
FLAG 1744 1008 -Vref
FLAG 2176 -112 +Vref
FLAG 2320 -64 +Vcc
FLAG 224 848 -5v
FLAG 400 848 +5v
FLAG 224 928 0
FLAG 400 928 0
FLAG 2320 -128 -5v
FLAG 2704 320 0
FLAG 2192 320 0
FLAG 2704 -208 +Vcc
FLAG 2176 656 -Vref
FLAG 2320 704 +5v
FLAG 2320 640 -Vcc
FLAG 2704 1088 0
FLAG 2192 1088 0
FLAG 2704 560 -Vcc
FLAG 3504 -240 0
FLAG 3632 48 +5v
FLAG 3632 -16 -5v
FLAG 3840 0 -5v
FLAG 3840 64 +5v
FLAG 560 848 +2.1v
FLAG 560 928 0
FLAG 3792 48 +2.1v
FLAG 3984 -16 +5v
FLAG 4288 224 0
FLAG 4544 0 Vprot
FLAG 2816 -48 Vprot_in
FLAG 3168 -80 Vprot_in
FLAG 2816 96 Vprot_out
FLAG 3168 112 Vprot_out
FLAG 4352 -32 -5v
FLAG 4352 32 +5v
FLAG 976 208 Vprot
FLAG 1184 400 0
SYMBOL voltage 32 16 R0
SYMATTR InstName V1
SYMATTR Value SINE(0 25.45 60)
SYMBOL voltage 32 176 R0
SYMATTR InstName V2
SYMATTR Value SINE(0 25.45 60)
SYMBOL diode 240 -96 R270
WINDOW 0 32 32 VTop 2
WINDOW 3 0 32 VBottom 2
SYMATTR InstName D1
SYMBOL diode 304 -48 R90
WINDOW 0 0 32 VBottom 2
WINDOW 3 32 32 VTop 2
SYMATTR InstName D2
SYMBOL diode 240 368 R270
WINDOW 0 32 32 VTop 2
WINDOW 3 0 32 VBottom 2
SYMATTR InstName D3
SYMBOL diode 304 416 R90
WINDOW 0 0 32 VBottom 2
WINDOW 3 32 32 VTop 2
SYMATTR InstName D4
SYMBOL cap 528 -80 R0
SYMATTR InstName C1
SYMATTR Value 4000µ
SYMBOL cap 528 384 R0
SYMATTR InstName C2
SYMATTR Value 4000µ
SYMBOL res 1392 -112 R0
SYMATTR InstName R1
SYMATTR Value 4k
SYMBOL zener 1424 224 R180
WINDOW 0 24 64 Left 2
WINDOW 3 24 0 Left 2
SYMATTR InstName D5
SYMATTR Value 1N750
SYMBOL res 1584 80 R0
SYMATTR InstName R2
SYMATTR Value 1
SYMBOL res 1584 240 R0
SYMATTR InstName R3
SYMATTR Value 10k
SYMBOL res 1392 672 R0
SYMATTR InstName R4
SYMATTR Value 4k
SYMBOL zener 1392 944 R0
SYMATTR InstName D6
SYMATTR Value 1N750
SYMBOL res 1584 864 R0
SYMATTR InstName R5
SYMATTR Value 1
SYMBOL res 1584 1024 R0
SYMATTR InstName R6
SYMATTR Value 10k
SYMBOL res 2560 -112 R90
WINDOW 0 0 56 VBottom 2
WINDOW 3 32 56 VTop 2
SYMATTR InstName R7
SYMATTR Value 100
SYMBOL res 2560 80 R90
WINDOW 0 0 56 VBottom 2
WINDOW 3 32 56 VTop 2
SYMATTR InstName R8
SYMATTR Value 1k
SYMBOL res 2400 80 R90
WINDOW 0 0 56 VBottom 2
WINDOW 3 32 56 VTop 2
SYMATTR InstName R9
SYMATTR Value 20k
SYMBOL res 2208 272 R180
WINDOW 0 36 76 Left 2
WINDOW 3 36 40 Left 2
SYMATTR InstName R10
SYMATTR Value 10k
SYMBOL res 2688 176 R0
SYMATTR InstName R11
SYMATTR Value 5
SYMBOL npn 2640 -144 R0
SYMATTR InstName Q1
SYMATTR Value FZT849
SYMBOL OpAmps\\UniversalOpamp2 2320 -96 M180
SYMATTR InstName U1
SYMBOL voltage 224 944 R180
WINDOW 123 0 0 Left 2
WINDOW 39 0 0 Left 2
SYMATTR InstName V3
SYMATTR Value 5
SYMBOL voltage 400 832 R0
WINDOW 123 0 0 Left 2
WINDOW 39 0 0 Left 2
SYMATTR InstName V4
SYMATTR Value 5
SYMBOL res 2560 656 R90
WINDOW 0 0 56 VBottom 2
WINDOW 3 32 56 VTop 2
SYMATTR InstName R12
SYMATTR Value 100
SYMBOL res 2560 848 R90
WINDOW 0 0 56 VBottom 2
WINDOW 3 32 56 VTop 2
SYMATTR InstName R13
SYMATTR Value 1k
SYMBOL res 2400 848 R90
WINDOW 0 0 56 VBottom 2
WINDOW 3 32 56 VTop 2
SYMATTR InstName R14
SYMATTR Value 20k
SYMBOL res 2208 1040 R180
WINDOW 0 36 76 Left 2
WINDOW 3 36 40 Left 2
SYMATTR InstName R15
SYMATTR Value 10k
SYMBOL res 2688 944 R0
SYMATTR InstName R16
SYMATTR Value 15
SYMBOL npn 2640 624 R0
SYMATTR InstName Q2
SYMATTR Value FZT849
SYMBOL OpAmps\\UniversalOpamp2 2320 672 M180
SYMATTR InstName U2
SYMBOL res 3152 -32 R0
SYMATTR InstName R21
SYMATTR Value 0.1
SYMBOL res 3440 -96 R90
WINDOW 0 0 56 VBottom 2
WINDOW 3 32 56 VTop 2
SYMATTR InstName R22
SYMATTR Value 10k
SYMBOL res 3440 96 R90
WINDOW 0 0 56 VBottom 2
WINDOW 3 32 56 VTop 2
SYMATTR InstName R23
SYMATTR Value 10k
SYMBOL res 3520 -112 R180
WINDOW 0 36 76 Left 2
WINDOW 3 36 40 Left 2
SYMATTR InstName R24
SYMATTR Value 200k
SYMBOL res 3568 176 R270
WINDOW 0 32 56 VTop 2
WINDOW 3 0 56 VBottom 2
SYMATTR InstName R25
SYMATTR Value 200k
SYMBOL Opamps\\UniversalOpamp2 3632 16 M180
SYMATTR InstName U3
SYMBOL Opamps\\UniversalOpamp2 3840 32 M180
SYMATTR InstName U4
SYMBOL voltage 560 832 R0
WINDOW 123 0 0 Left 2
WINDOW 39 0 0 Left 2
SYMATTR InstName V5
SYMATTR Value 2.1
SYMBOL Digital\\dflop 4096 -64 R0
SYMATTR InstName A1
SYMBOL Opamps\\UniversalOpamp2 4352 0 M180
SYMATTR InstName U5
SYMBOL res 4432 112 R90
WINDOW 0 0 56 VBottom 2
WINDOW 3 32 56 VTop 2
SYMATTR InstName R26
SYMATTR Value 4k
SYMBOL res 4304 240 R180
WINDOW 0 36 76 Left 2
WINDOW 3 36 40 Left 2
SYMATTR InstName R27
SYMATTR Value 1k
SYMBOL npn 1120 160 R0
SYMATTR InstName Q3
SYMATTR Value 2N2222
SYMBOL res 1104 192 R90
WINDOW 0 0 56 VBottom 2
WINDOW 3 32 56 VTop 2
SYMATTR InstName R28
SYMATTR Value 1k
TEXT 176 -248 Left 2 ;Estágio retificador com filtro capacitivo
TEXT -104 552 Left 2 !.tran 0.1s
TEXT 1232 -248 Left 2 ;Estágio regulador de tensão (+)
TEXT 1232 536 Left 2 ;Estágio regulador de tensão (-)
TEXT 2192 -256 Left 2 ;Estágio de ganho (+)
TEXT 184 680 Left 2 ;Fontes auxiliares
TEXT 2192 512 Left 2 ;Estágio de ganho (-)
