Version 4
SHEET 1 2160 1952
WIRE 1552 848 1440 848
WIRE -64 896 -320 896
WIRE 288 896 -64 896
WIRE 784 896 784 880
WIRE 960 896 784 896
WIRE 1216 896 960 896
WIRE 1376 896 1216 896
WIRE 784 912 784 896
WIRE 288 944 288 896
WIRE 1552 944 1552 848
WIRE -320 960 -320 896
WIRE -64 960 -64 896
WIRE 960 976 960 896
WIRE 1440 992 1440 944
WIRE 1488 992 1440 992
WIRE -192 1008 -256 1008
WIRE -128 1008 -192 1008
WIRE 784 1024 784 992
WIRE 896 1024 784 1024
WIRE 1216 1024 1216 896
WIRE 784 1040 784 1024
WIRE -1024 1056 -1024 1024
WIRE -848 1056 -848 1024
WIRE -848 1056 -928 1056
WIRE 288 1072 288 1024
WIRE 1552 1072 1552 1040
WIRE 1552 1072 1280 1072
WIRE -1024 1088 -1024 1056
WIRE -848 1088 -848 1056
WIRE -928 1104 -928 1056
WIRE -320 1104 -320 1056
WIRE -192 1104 -192 1008
WIRE -192 1104 -320 1104
WIRE -64 1120 -64 1056
WIRE 176 1120 -64 1120
WIRE 224 1120 176 1120
WIRE -320 1136 -320 1104
WIRE -320 1136 -352 1136
WIRE -240 1136 -320 1136
WIRE -64 1136 -64 1120
WIRE -64 1136 -112 1136
WIRE 0 1136 -64 1136
WIRE 784 1152 784 1120
WIRE 960 1152 960 1072
WIRE 960 1152 784 1152
WIRE 176 1168 176 1120
WIRE 1216 1184 1216 1120
WIRE 1552 1184 1552 1152
WIRE 1552 1184 1216 1184
WIRE 1616 1184 1552 1184
WIRE 1552 1216 1552 1184
WIRE 176 1264 176 1232
WIRE 288 1264 288 1168
WIRE 288 1264 176 1264
WIRE 528 1264 528 1248
WIRE 656 1264 528 1264
WIRE 1216 1264 1216 1184
WIRE -240 1280 -240 1136
WIRE -112 1280 -112 1136
WIRE 528 1296 528 1264
WIRE 784 1296 784 1152
WIRE 1552 1312 1552 1296
WIRE 1552 1312 1280 1312
WIRE -352 1328 -352 1232
WIRE -304 1328 -352 1328
WIRE 0 1328 0 1232
WIRE 0 1328 -48 1328
WIRE 656 1344 656 1264
WIRE 656 1344 592 1344
WIRE 720 1344 656 1344
WIRE -176 1376 -240 1376
WIRE -112 1376 -176 1376
WIRE 1552 1376 1552 1312
WIRE -448 1424 -448 1360
WIRE 1488 1424 1392 1424
WIRE 528 1456 528 1392
WIRE 656 1456 528 1456
WIRE 528 1488 528 1456
WIRE 784 1488 784 1392
WIRE 1392 1504 1392 1424
WIRE -448 1536 -448 1504
WIRE -320 1536 -448 1536
WIRE 656 1536 656 1456
WIRE 656 1536 592 1536
WIRE 720 1536 656 1536
WIRE -448 1552 -448 1536
WIRE -176 1552 -176 1376
WIRE 960 1552 960 1152
WIRE 1216 1552 1216 1360
WIRE 1216 1552 960 1552
WIRE 1328 1552 1216 1552
WIRE -320 1600 -320 1536
WIRE -320 1600 -384 1600
WIRE -240 1600 -320 1600
WIRE 1552 1600 1552 1472
WIRE 1552 1600 1392 1600
WIRE 528 1648 528 1584
WIRE 656 1648 528 1648
WIRE 784 1648 784 1584
WIRE 784 1648 656 1648
WIRE -448 1680 -448 1648
WIRE -320 1680 -448 1680
WIRE -448 1696 -448 1680
WIRE -176 1696 -176 1648
WIRE -320 1744 -320 1680
WIRE -320 1744 -384 1744
WIRE -240 1744 -320 1744
WIRE -448 1872 -448 1792
WIRE -320 1872 -448 1872
WIRE -176 1872 -176 1792
WIRE -176 1872 -320 1872
FLAG -1024 1168 -Vee
IOPIN -1024 1168 Out
FLAG -1024 944 +Vcc
IOPIN -1024 944 Out
FLAG -448 1360 0
FLAG -320 1872 -Vee
IOPIN -320 1872 In
FLAG -64 896 +Vcc
IOPIN -64 896 In
FLAG 288 1264 Vout1
IOPIN 288 1264 BiDir
FLAG -416 1184 +Vid
IOPIN -416 1184 In
FLAG 64 1184 -Vid
IOPIN 64 1184 In
FLAG -848 1168 -Vid
IOPIN -848 1168 Out
FLAG -848 944 +Vid
IOPIN -848 944 Out
FLAG -928 1104 0
FLAG 784 880 Vout1
IOPIN 784 880 BiDir
FLAG 528 1168 0
FLAG 656 1648 -Vee
IOPIN 656 1648 In
FLAG 1552 848 +Vcc
IOPIN 1552 848 In
FLAG 1552 1600 -Vee
IOPIN 1552 1600 In
FLAG 1616 1184 Vout
IOPIN 1616 1184 Out
FLAG -1024 1056 0
SYMBOL npn -416 1136 R0
WINDOW 3 -47 116 Left 2
SYMATTR Value BC547C
SYMATTR InstName Q1
SYMBOL pnp -256 1056 R180
SYMATTR InstName Q7
SYMATTR Value BC557C
SYMBOL voltage -1024 928 R0
WINDOW 123 0 0 Left 0
WINDOW 39 0 0 Left 0
SYMATTR InstName V4
SYMATTR Value 15
SYMBOL voltage -1024 1072 R0
WINDOW 123 0 0 Left 0
WINDOW 39 0 0 Left 0
SYMATTR InstName V5
SYMATTR Value 15
SYMBOL npn -304 1280 R0
WINDOW 3 -47 116 Left 2
SYMATTR Value BC547C
SYMATTR InstName Q2
SYMBOL npn 64 1136 M0
WINDOW 3 -47 116 Left 2
SYMATTR Value BC547C
SYMATTR InstName Q3
SYMBOL npn -48 1280 M0
WINDOW 3 -47 116 Left 2
SYMATTR Value BC547C
SYMATTR InstName Q4
SYMBOL npn -240 1552 R0
WINDOW 3 -47 116 Left 2
SYMATTR Value BC547C
SYMATTR InstName Q5
SYMBOL npn -240 1696 R0
WINDOW 3 -47 116 Left 2
SYMATTR Value BC547C
SYMATTR InstName Q6
SYMBOL npn -384 1552 M0
WINDOW 3 -47 116 Left 2
SYMATTR Value BC547C
SYMATTR InstName Q8
SYMBOL npn -384 1696 M0
WINDOW 3 -47 116 Left 2
SYMATTR Value BC547C
SYMATTR InstName Q9
SYMBOL res -464 1408 R0
SYMATTR InstName R1
SYMATTR Value 5.8k
SYMBOL pnp -128 1056 M180
SYMATTR InstName Q10
SYMATTR Value BC557C
SYMBOL pnp 224 1168 M180
SYMATTR InstName Q11
SYMATTR Value BC557C
SYMBOL cap 160 1168 R0
SYMATTR InstName C1
SYMATTR Value 100p
SYMBOL res 272 928 R0
SYMATTR InstName R2
SYMATTR Value 50
SYMBOL voltage -848 928 R0
WINDOW 123 24 124 Left 2
WINDOW 39 0 0 Left 0
SYMATTR Value2 AC 0.1 0
SYMATTR InstName V1
SYMATTR Value SINE(0 0.001 500)
SYMBOL voltage -848 1072 R0
WINDOW 123 24 124 Left 2
WINDOW 39 0 0 Left 0
SYMATTR Value2 AC 0.1 0
SYMATTR InstName V2
SYMATTR Value SINE(0 0.001 500)
SYMBOL res 768 896 R0
SYMATTR InstName R3
SYMATTR Value 2k
SYMBOL res 768 1024 R0
SYMATTR InstName R4
SYMATTR Value 11.071k
SYMBOL pnp 896 1072 M180
SYMATTR InstName Q12
SYMATTR Value BC557C
SYMBOL npn 592 1296 M0
WINDOW 3 -47 116 Left 2
SYMATTR Value BC547C
SYMATTR InstName Q13
SYMBOL npn 720 1296 R0
WINDOW 3 -47 116 Left 2
SYMATTR Value BC547C
SYMATTR InstName Q14
SYMBOL npn 592 1488 M0
WINDOW 3 -47 116 Left 2
SYMATTR Value BC547C
SYMATTR InstName Q15
SYMBOL npn 720 1488 R0
WINDOW 3 -47 116 Left 2
SYMATTR Value BC547C
SYMATTR InstName Q16
SYMBOL res 512 1152 R0
SYMATTR InstName R5
SYMATTR Value 12k
SYMBOL npn 1376 848 R0
WINDOW 3 -47 116 Left 2
SYMATTR Value BC547C
SYMATTR InstName Q17
SYMBOL npn 1488 944 R0
WINDOW 3 -47 116 Left 2
SYMATTR Value 2N4401
SYMATTR InstName Q18
SYMBOL res 1536 1056 R0
SYMATTR InstName R6
SYMATTR Value 1.62
SYMBOL res 1536 1200 R0
SYMATTR InstName R7
SYMATTR Value 1.12
SYMBOL pnp 1488 1472 M180
SYMATTR InstName Q19
SYMATTR Value 2N4403
SYMBOL pnp 1328 1600 M180
SYMATTR InstName Q20
SYMATTR Value BC557C
SYMBOL npn 1280 1024 M0
WINDOW 3 -47 116 Left 2
SYMATTR Value 2N5210
SYMATTR InstName Q21
SYMBOL pnp 1280 1360 R180
SYMATTR InstName Q22
SYMATTR Value 2N5087
TEXT -1000 1936 Left 2 !.tran 0 2 0
TEXT -992 1872 Left 2 !;ac dec 51 0.01 100meg
